gem5 Simulator System.  http://gem5.org
gem5 is copyrighted software; use the --copyright option for details.

gem5 compiled Jun 27 2021 13:33:33
gem5 started Jun 27 2021 19:44:46
gem5 executing on orzebra-VirtualBox, pid 12832
command line: ./build/X86/gem5.opt configs/example/se.py -c tests/test-progs/hello/bin/x86/linux/hello --cpu-type=TimingSimpleCPU --caches --l2cache --l3cache --mem-type=NVMainMemory --nvmain-config=../NVmain/Config/PCM_ISSCC_2012_4GB.config

